-------------------------------------------------------
          Amber 24 PMEMD                              2024
          -------------------------------------------------------

  [-O]verwriting output

File Assignments:

 Here is the input file:

eq1a: npt (mc), 50 ps, 1 fs, heavier damping + restraints
 &cntrl
  imin=0, iwrap=1,
  ntx=5, irest=1,
  dt=0.001, nstlim=50000,      ! 50 ps @ 1 fs
  ntc=2, ntf=2,                 ! SHAKE (H-bonds)
  ntb=2, ntp=1, barostat=2,     ! NPT + Monte Carlo barostat
  mcbarint=25, pres0=1.0,
  ntt=3, gamma_ln=3.0, temp0=300.0,
  cut=10.0,
  ntpr=1000, ntwx=1000, ntwr=5000, ntxo=2, ioutfm=1,
  ntr=1, restraint_wt=2.0,
  restraintmask='!:WAT,HOH,Na+,Cl- & !@H='   ! heavy non-solvent
 /

Note: ig = -1. Setting random seed to   474329 based on wallclock time in
      microseconds.

--------------------------------------------------------------------------------
   1.  RESOURCE   USE:
--------------------------------------------------------------------------------

 getting box info from netcdf restart file
 NATOM  =   63283 NTYPES =      19 NBONH =   60215 MBONA  =    3149
 NTHETH =    6786 MTHETA =    4291 NPHIH =   13868 MPHIA  =   13506
 NHPARM =       0 NPARM  =       0 NNB   =  109843 NRES   =   19473
 NBONA  =    3149 NTHETA =    4291 NPHIA =   13506 NUMBND =      95
 NUMANG =     235 NPTRA  =     200 NATYP =      46 NPHB   =       1
 IFBOX  =       1 NMXRS  =      24 IFCAP =       0 NEXTRA =       0
 NCOPY  =       0

     BOX TYPE: RECTILINEAR

--------------------------------------------------------------------------------
   2.  CONTROL  DATA  FOR  THE  RUN
--------------------------------------------------------------------------------

default_name

General flags:
     imin    =       0, nmropt  =       0

Nature and format of input:
     ntx     =       5, irest   =       1, ntrx    =       1

Nature and format of output:
     ntxo    =       2, ntpr    =    1000, ntrx    =       1, ntwr    =    5000
     iwrap   =       1, ntwx    =    1000, ntwv    =       0, ntwe    =       0
     ioutfm  =       1, ntwprt  =       0, idecomp =       0, rbornstat=      0

Potential function:
     ntf     =       2, ntb     =       2, igb     =       0, nsnb    =      25
     ipol    =       0, gbsa    =       0, iesp    =       0
     dielc   =   1.00000, cut     =  10.00000, intdiel =   1.00000

Frozen or restrained atoms:
     ibelly  =       0, ntr     =       1
     restraint_wt =   2.00000

Molecular dynamics:
     nstlim  =     50000, nscm    =         0, nrespa  =         1
     t       =   0.00000, dt      =   0.00100, vlimit  =  20.00000

Langevin dynamics temperature regulation:
     ig      =  474329
     temp0   = 300.00000, tempi   =   0.00000, gamma_ln=   3.00000

Pressure regulation:
     ntp     =       1
     pres0   =   1.00000, comp    =  44.60000, taup    =   1.00000
     Monte-Carlo Barostat:
     mcbarint  =      25

SHAKE:
     ntc     =       2, jfastw  =       0
     tol     =   0.00001

Ewald parameters:
     verbose =       0, ew_type =       0, nbflag  =       1, use_pme =       1
     vdwmeth =       1, eedmeth =       1, netfrc  =       1
     Box X =   78.672   Box Y =  113.827   Box Z =   86.545
     Alpha =   90.000   Beta  =   90.000   Gamma =   90.000
     NFFT1 =   80       NFFT2 =  120       NFFT3 =   90
     Cutoff=   10.000   Tol   =0.100E-04
     Ewald Coefficient =  0.27511
     Interpolation order =    4

    LOADING THE CONSTRAINED ATOMS AS GROUPS

   5.  REFERENCE ATOM COORDINATES

  default_name
     Mask !:WAT,HOH,Na+,Cl- & !@H=; matches  3060 atoms

--------------------------------------------------------------------------------
   3.  ATOMIC COORDINATES AND VELOCITIES
--------------------------------------------------------------------------------

default_name
 begin time read from input coords =    50.000 ps

 Number of triangulated 3-point waters found:    19080

     Sum of charges from parm topology file =   0.00000486
     Forcing neutrality...

--------------------------------------------------------------------------------
   4.  RESULTS
 NSTEP =     1000   TIME(PS) =      51.000  TEMP(K) =   309.25  PRESS =     0.0
 Etot   =   -149956.2945  EKtot   =     39832.3562  EPtot      =   -189788.6508
 BOND   =      1366.2878  ANGLE   =      3734.1389  DIHED      =      2412.3176
 UB     =         0.0000  IMP     =         0.0000  CMAP       =       250.5949
 1-4 NB =      1332.0874  1-4 EEL =     15723.9575  VDWAALS    =     23834.1993
 EELEC  =   -239207.0923  EHBOND  =         0.0000  RESTRAINT  =       764.8581
 EAMBER (non-restraint)  =   -190553.5089
 EKCMT  =         0.0000  VIRIAL  =         0.0000  VOLUME     =    761966.3621
                                                    Density    =         0.8443
 Ewald error estimate:   0.1659E-04
 ------------------------------------------------------------------------------

      A V E R A G E S   O V E R      50 S T E P S

 NSTEP =    50000   TIME(PS) =     100.000  TEMP(K) =   306.54  PRESS =     0.0
 Etot   =   -152889.6903  EKtot   =     39483.6998  EPtot      =   -192373.3901
 BOND   =      1325.9387  ANGLE   =      3482.0493  DIHED      =      2336.6775
 UB     =         0.0000  IMP     =         0.0000  CMAP       =       238.9638
 1-4 NB =      1372.2358  1-4 EEL =     16003.7817  VDWAALS    =     23678.9894
 EELEC  =   -241540.1081  EHBOND  =         0.0000  RESTRAINT  =       728.0817
 EAMBER (non-restraint)  =   -193101.4718
 EKCMT  =         0.0000  VIRIAL  =         0.0000  VOLUME     =    682789.4020
                                                    Density    =         0.9442
 Ewald error estimate:   0.4418E-04
 ------------------------------------------------------------------------------

      R M S  F L U C T U A T I O N S

 NSTEP =    50000   TIME(PS) =     100.000  TEMP(K) =     5.55  PRESS =     0.0
 Etot   =      1454.8850  EKtot   =       714.6417  EPtot      =       948.5316
 BOND   =       212.5347  ANGLE   =       254.2688  DIHED      =        50.5503
 UB     =         0.0000  IMP     =         0.0000  CMAP       =         7.4809
 1-4 NB =        33.7526  1-4 EEL =        85.1985  VDWAALS    =       219.7019
 EELEC  =       799.5015  EHBOND  =         0.0000  RESTRAINT  =        80.3956
 EAMBER (non-restraint)  =       868.1360
 EKCMT  =         0.0000  VIRIAL  =         0.0000  VOLUME     =     31691.7602
                                                    Density    =         0.0425
 Ewald error estimate:   0.3386E-04
 ------------------------------------------------------------------------------
