-------------------------------------------------------
          Amber 24 PMEMD                              2024
          -------------------------------------------------------

  [-O]verwriting output

File Assignments:

 Here is the input file:

eq1a: npt (mc), 50 ps, 1 fs, heavier damping + restraints
 &cntrl
  imin=0, iwrap=1,
  ntx=5, irest=1,
  dt=0.001, nstlim=50000,      ! 50 ps @ 1 fs
  ntc=2, ntf=2,                 ! SHAKE (H-bonds)
  ntb=2, ntp=1, barostat=2,     ! NPT + Monte Carlo barostat
  mcbarint=25, pres0=1.0,
  ntt=3, gamma_ln=3.0, temp0=300.0,
  cut=10.0,
  ntpr=1000, ntwx=1000, ntwr=5000, ntxo=2, ioutfm=1,
  ntr=1, restraint_wt=2.0,
  restraintmask='!:WAT,HOH,Na+,Cl- & !@H='   ! heavy non-solvent
 /

Note: ig = -1. Setting random seed to   331223 based on wallclock time in
      microseconds.

--------------------------------------------------------------------------------
   1.  RESOURCE   USE:
--------------------------------------------------------------------------------

 getting box info from netcdf restart file
 NATOM  =   63284 NTYPES =      19 NBONH =   60214 MBONA  =    3149
 NTHETH =    6787 MTHETA =    4291 NPHIH =   13868 MPHIA  =   13506
 NHPARM =       0 NPARM  =       0 NNB   =  109844 NRES   =   19474
 NBONA  =    3149 NTHETA =    4291 NPHIA =   13506 NUMBND =      96
 NUMANG =     236 NPTRA  =     200 NATYP =      46 NPHB   =       1
 IFBOX  =       1 NMXRS  =      24 IFCAP =       0 NEXTRA =       0
 NCOPY  =       0

     BOX TYPE: RECTILINEAR

--------------------------------------------------------------------------------
   2.  CONTROL  DATA  FOR  THE  RUN
--------------------------------------------------------------------------------

default_name

General flags:
     imin    =       0, nmropt  =       0

Nature and format of input:
     ntx     =       5, irest   =       1, ntrx    =       1

Nature and format of output:
     ntxo    =       2, ntpr    =    1000, ntrx    =       1, ntwr    =    5000
     iwrap   =       1, ntwx    =    1000, ntwv    =       0, ntwe    =       0
     ioutfm  =       1, ntwprt  =       0, idecomp =       0, rbornstat=      0

Potential function:
     ntf     =       2, ntb     =       2, igb     =       0, nsnb    =      25
     ipol    =       0, gbsa    =       0, iesp    =       0
     dielc   =   1.00000, cut     =  10.00000, intdiel =   1.00000

Frozen or restrained atoms:
     ibelly  =       0, ntr     =       1
     restraint_wt =   2.00000

Molecular dynamics:
     nstlim  =     50000, nscm    =         0, nrespa  =         1
     t       =   0.00000, dt      =   0.00100, vlimit  =  20.00000

Langevin dynamics temperature regulation:
     ig      =  331223
     temp0   = 300.00000, tempi   =   0.00000, gamma_ln=   3.00000

Pressure regulation:
     ntp     =       1
     pres0   =   1.00000, comp    =  44.60000, taup    =   1.00000
     Monte-Carlo Barostat:
     mcbarint  =      25

SHAKE:
     ntc     =       2, jfastw  =       0
     tol     =   0.00001

Ewald parameters:
     verbose =       0, ew_type =       0, nbflag  =       1, use_pme =       1
     vdwmeth =       1, eedmeth =       1, netfrc  =       1
     Box X =   78.672   Box Y =  113.827   Box Z =   86.545
     Alpha =   90.000   Beta  =   90.000   Gamma =   90.000
     NFFT1 =   80       NFFT2 =  120       NFFT3 =   90
     Cutoff=   10.000   Tol   =0.100E-04
     Ewald Coefficient =  0.27511
     Interpolation order =    4

    LOADING THE CONSTRAINED ATOMS AS GROUPS

   5.  REFERENCE ATOM COORDINATES

  default_name
     Mask !:WAT,HOH,Na+,Cl- & !@H=; matches  3061 atoms

--------------------------------------------------------------------------------
   3.  ATOMIC COORDINATES AND VELOCITIES
--------------------------------------------------------------------------------

default_name
 begin time read from input coords =    50.000 ps

 Number of triangulated 3-point waters found:    19079

     Sum of charges from parm topology file =   0.00000085
     Forcing neutrality...

--------------------------------------------------------------------------------
   4.  RESULTS
 NSTEP =     1000   TIME(PS) =      51.000  TEMP(K) =   303.68  PRESS =     0.0
 Etot   =   -151375.6222  EKtot   =     39116.6239  EPtot      =   -190492.2460
 BOND   =      1234.6349  ANGLE   =      3457.7755  DIHED      =      2352.2374
 UB     =         0.0000  IMP     =         0.0000  CMAP       =       253.9854
 1-4 NB =      1332.3843  1-4 EEL =     15809.1398  VDWAALS    =     23153.6063
 EELEC  =   -238711.1502  EHBOND  =         0.0000  RESTRAINT  =       625.1406
 EAMBER (non-restraint)  =   -191117.3867
 EKCMT  =         0.0000  VIRIAL  =         0.0000  VOLUME     =    765423.5490
                                                    Density    =         0.8405
 Ewald error estimate:   0.9359E-04
 ------------------------------------------------------------------------------

      A V E R A G E S   O V E R      50 S T E P S

 NSTEP =    50000   TIME(PS) =     100.000  TEMP(K) =   308.52  PRESS =     0.0
 Etot   =   -152764.5834  EKtot   =     39739.3428  EPtot      =   -192503.9262
 BOND   =      1376.7293  ANGLE   =      3591.7888  DIHED      =      2329.6253
 UB     =         0.0000  IMP     =         0.0000  CMAP       =       251.9762
 1-4 NB =      1378.7761  1-4 EEL =     15775.1901  VDWAALS    =     23593.9470
 EELEC  =   -241471.5555  EHBOND  =         0.0000  RESTRAINT  =       669.5965
 EAMBER (non-restraint)  =   -193173.5227
 EKCMT  =         0.0000  VIRIAL  =         0.0000  VOLUME     =    684512.9184
                                                    Density    =         0.9418
 Ewald error estimate:   0.4432E-04
 ------------------------------------------------------------------------------

      R M S  F L U C T U A T I O N S

 NSTEP =    50000   TIME(PS) =     100.000  TEMP(K) =    12.38  PRESS =     0.0
 Etot   =      3152.2810  EKtot   =      1595.0281  EPtot      =      1681.9728
 BOND   =       448.4379  ANGLE   =       576.7837  DIHED      =       119.6747
 UB     =         0.0000  IMP     =         0.0000  CMAP       =         6.1685
 1-4 NB =        62.9251  1-4 EEL =       125.1788  VDWAALS    =       251.9453
 EELEC  =       841.8404  EHBOND  =         0.0000  RESTRAINT  =       191.0857
 EAMBER (non-restraint)  =      1490.8871
 EKCMT  =         0.0000  VIRIAL  =         0.0000  VOLUME     =     30980.0848
                                                    Density    =         0.0413
 Ewald error estimate:   0.3557E-04
 ------------------------------------------------------------------------------
